Version 4
SHEET 1 4300 3636
WIRE -224 -576 -336 -576
WIRE -112 -576 -144 -576
WIRE 128 -576 -32 -576
WIRE 368 -576 128 -576
WIRE 128 -496 128 -576
WIRE 368 -496 368 -576
WIRE -336 -480 -336 -576
WIRE 368 -384 368 -416
WIRE -336 -368 -336 -400
WIRE 128 -272 128 -304
WIRE -224 -128 -336 -128
WIRE -112 -128 -144 -128
WIRE 128 -128 -32 -128
WIRE 368 -128 128 -128
WIRE 1504 -128 1392 -128
WIRE 1616 -128 1584 -128
WIRE 1856 -128 1696 -128
WIRE 2000 -128 1856 -128
WIRE 2144 -128 2000 -128
WIRE 2288 -128 2144 -128
WIRE 3392 -128 2288 -128
WIRE 128 -48 128 -128
WIRE 368 -48 368 -128
WIRE 1856 -48 1856 -128
WIRE 2000 -48 2000 -128
WIRE 2144 -48 2144 -128
WIRE 2288 -48 2288 -128
WIRE 3392 -48 3392 -128
WIRE -336 -32 -336 -128
WIRE 1392 -32 1392 -128
WIRE 368 64 368 32
WIRE 3392 64 3392 32
WIRE -336 80 -336 48
WIRE 1392 80 1392 48
WIRE 128 176 128 144
WIRE 1856 176 1856 144
WIRE 2000 176 2000 144
WIRE 2144 176 2144 144
WIRE 2288 176 2288 144
WIRE -224 288 -336 288
WIRE -112 288 -144 288
WIRE 128 288 -32 288
WIRE 368 288 128 288
WIRE 1504 288 1392 288
WIRE 1616 288 1584 288
WIRE 1856 288 1696 288
WIRE 2000 288 1856 288
WIRE 2144 288 2000 288
WIRE 2288 288 2144 288
WIRE 3392 288 2288 288
WIRE 128 368 128 288
WIRE 368 368 368 288
WIRE 1856 368 1856 288
WIRE 2000 368 2000 288
WIRE 2144 368 2144 288
WIRE 2288 368 2288 288
WIRE 3392 368 3392 288
WIRE -336 384 -336 288
WIRE 1392 384 1392 288
WIRE 368 480 368 448
WIRE 3392 480 3392 448
WIRE -336 496 -336 464
WIRE 1392 496 1392 464
WIRE 128 592 128 560
WIRE 1856 592 1856 560
WIRE 2000 592 2000 560
WIRE 2144 592 2144 560
WIRE 2288 592 2288 560
WIRE 1504 720 1392 720
WIRE 1616 720 1584 720
WIRE 1856 720 1696 720
WIRE 2000 720 1856 720
WIRE 2144 720 2000 720
WIRE 2288 720 2144 720
WIRE 3392 720 2288 720
WIRE -224 736 -336 736
WIRE -112 736 -144 736
WIRE 128 736 -32 736
WIRE 368 736 128 736
WIRE 1856 800 1856 720
WIRE 2000 800 2000 720
WIRE 2144 800 2144 720
WIRE 2288 800 2288 720
WIRE 3392 800 3392 720
WIRE 128 816 128 736
WIRE 368 816 368 736
WIRE 1392 816 1392 720
WIRE -336 832 -336 736
WIRE 3392 912 3392 880
WIRE 368 928 368 896
WIRE 1392 928 1392 896
WIRE -336 944 -336 912
WIRE 1856 1024 1856 992
WIRE 2000 1024 2000 992
WIRE 2144 1024 2144 992
WIRE 2288 1024 2288 992
WIRE 128 1040 128 1008
WIRE -224 1136 -336 1136
WIRE -112 1136 -144 1136
WIRE 128 1136 -32 1136
WIRE 368 1136 128 1136
WIRE 128 1216 128 1136
WIRE 368 1216 368 1136
WIRE -336 1232 -336 1136
WIRE 368 1328 368 1296
WIRE -336 1344 -336 1312
WIRE 128 1440 128 1408
WIRE -224 1552 -336 1552
WIRE -112 1552 -144 1552
WIRE 128 1552 -32 1552
WIRE 368 1552 128 1552
WIRE 1488 1568 1376 1568
WIRE 1600 1568 1568 1568
WIRE 1840 1568 1680 1568
WIRE 1984 1568 1840 1568
WIRE 2128 1568 1984 1568
WIRE 2272 1568 2128 1568
WIRE 3376 1568 2272 1568
WIRE 128 1632 128 1552
WIRE 368 1632 368 1552
WIRE -336 1648 -336 1552
WIRE 1840 1648 1840 1568
WIRE 1984 1648 1984 1568
WIRE 2128 1648 2128 1568
WIRE 2272 1648 2272 1568
WIRE 3376 1648 3376 1568
WIRE 1376 1664 1376 1568
WIRE 368 1744 368 1712
WIRE -336 1760 -336 1728
WIRE 3376 1760 3376 1728
WIRE 1376 1776 1376 1744
WIRE 128 1856 128 1824
WIRE 1840 1872 1840 1840
WIRE 1984 1872 1984 1840
WIRE 2128 1872 2128 1840
WIRE 2272 1872 2272 1840
WIRE 1488 1952 1376 1952
WIRE 1600 1952 1568 1952
WIRE 1840 1952 1680 1952
WIRE 1984 1952 1840 1952
WIRE 2128 1952 1984 1952
WIRE 2272 1952 2128 1952
WIRE 3376 1952 2272 1952
WIRE -224 1968 -336 1968
WIRE -112 1968 -144 1968
WIRE 128 1968 -32 1968
WIRE 368 1968 128 1968
WIRE 1840 2032 1840 1952
WIRE 1984 2032 1984 1952
WIRE 2128 2032 2128 1952
WIRE 2272 2032 2272 1952
WIRE 3376 2032 3376 1952
WIRE 128 2048 128 1968
WIRE 368 2048 368 1968
WIRE 1376 2048 1376 1952
WIRE -336 2064 -336 1968
WIRE 3376 2144 3376 2112
WIRE 368 2160 368 2128
WIRE 1376 2160 1376 2128
WIRE -336 2176 -336 2144
WIRE 1840 2256 1840 2224
WIRE 1984 2256 1984 2224
WIRE 2128 2256 2128 2224
WIRE 2272 2256 2272 2224
WIRE 128 2272 128 2240
WIRE 1456 2368 1344 2368
WIRE 1568 2368 1536 2368
WIRE 1808 2368 1648 2368
WIRE 1952 2368 1808 2368
WIRE 2096 2368 1952 2368
WIRE 2240 2368 2096 2368
WIRE 3344 2368 2240 2368
WIRE -224 2384 -336 2384
WIRE -112 2384 -144 2384
WIRE 128 2384 -32 2384
WIRE 368 2384 128 2384
WIRE 1808 2448 1808 2368
WIRE 1952 2448 1952 2368
WIRE 2096 2448 2096 2368
WIRE 2240 2448 2240 2368
WIRE 3344 2448 3344 2368
WIRE 128 2464 128 2384
WIRE 368 2464 368 2384
WIRE 1344 2464 1344 2368
WIRE -336 2480 -336 2384
WIRE 3344 2560 3344 2528
WIRE 368 2576 368 2544
WIRE 1344 2576 1344 2544
WIRE -336 2592 -336 2560
WIRE 1808 2672 1808 2640
WIRE 1952 2672 1952 2640
WIRE 2096 2672 2096 2640
WIRE 2240 2672 2240 2640
WIRE 128 2688 128 2656
WIRE 1504 3312 1392 3312
WIRE 1616 3312 1584 3312
WIRE 1856 3312 1696 3312
WIRE 2000 3312 1856 3312
WIRE 2144 3312 2000 3312
WIRE 2288 3312 2144 3312
WIRE 3392 3312 2288 3312
WIRE 1856 3392 1856 3312
WIRE 2000 3392 2000 3312
WIRE 2144 3392 2144 3312
WIRE 2288 3392 2288 3312
WIRE 3392 3392 3392 3312
WIRE 1392 3408 1392 3312
WIRE 3392 3504 3392 3472
WIRE 1392 3520 1392 3488
WIRE 1856 3616 1856 3584
WIRE 2000 3616 2000 3584
WIRE 2144 3616 2144 3584
WIRE 2288 3616 2288 3584
FLAG -336 80 0
FLAG 128 176 0
FLAG 368 64 0
FLAG -336 496 0
FLAG 128 592 0
FLAG 368 480 0
FLAG -336 1344 0
FLAG 128 1440 0
FLAG 368 1328 0
FLAG 1392 928 0
FLAG 1856 1024 0
FLAG 3392 912 0
FLAG 2000 1024 0
FLAG 2144 1024 0
FLAG 2288 1024 0
FLAG 1392 80 0
FLAG 1856 176 0
FLAG 3392 64 0
FLAG 2000 176 0
FLAG 2144 176 0
FLAG 2288 176 0
FLAG 1392 496 0
FLAG 1856 592 0
FLAG 3392 480 0
FLAG 2000 592 0
FLAG 2144 592 0
FLAG 2288 592 0
FLAG 1392 3520 0
FLAG 1856 3616 0
FLAG 3392 3504 0
FLAG 2000 3616 0
FLAG 2144 3616 0
FLAG 2288 3616 0
FLAG -336 944 0
FLAG 128 1040 0
FLAG 368 928 0
FLAG -336 -368 0
FLAG 128 -272 0
FLAG 368 -384 0
FLAG -336 1760 0
FLAG 128 1856 0
FLAG 368 1744 0
FLAG 1376 1776 0
FLAG 1840 1872 0
FLAG 3376 1760 0
FLAG 1984 1872 0
FLAG 2128 1872 0
FLAG 2272 1872 0
FLAG -336 2176 0
FLAG 128 2272 0
FLAG 368 2160 0
FLAG -336 2592 0
FLAG 128 2688 0
FLAG 368 2576 0
FLAG 1376 2160 0
FLAG 1840 2256 0
FLAG 3376 2144 0
FLAG 1984 2256 0
FLAG 2128 2256 0
FLAG 2272 2256 0
FLAG 1344 2576 0
FLAG 1808 2672 0
FLAG 3344 2560 0
FLAG 1952 2672 0
FLAG 2096 2672 0
FLAG 2240 2672 0
SYMBOL AutoGenerated\\GRM155R71A104MA01 128 48 R90
SYMATTR InstName U1
SYMBOL AutoGenerated\\GRM155R71H103JA88 128 464 R90
SYMATTR InstName U2
SYMBOL AutoGenerated\\GRM1555C1H101JA01 128 1312 R90
SYMATTR InstName U3
SYMBOL voltage -336 -48 R0
WINDOW 123 0 0 Left 0
WINDOW 39 0 0 Left 0
SYMATTR InstName V1
SYMATTR Value 3.3
SYMBOL res -16 -144 R90
WINDOW 0 0 56 VBottom 2
WINDOW 3 32 56 VTop 2
SYMATTR InstName R1
SYMATTR Value 1
SYMBOL current 368 -48 R0
WINDOW 123 0 0 Left 0
WINDOW 39 0 0 Left 0
SYMATTR InstName I1
SYMATTR Value PWL(0 0 1 0 {1+10e-12} 24e-3 {1+250e-12} 24e-3 {1+260e-12} 0)
SYMBOL ind -128 -144 R90
WINDOW 0 5 56 VBottom 2
WINDOW 3 32 56 VTop 2
SYMATTR InstName L1
SYMATTR Value 5n
SYMBOL voltage -336 368 R0
WINDOW 123 0 0 Left 0
WINDOW 39 0 0 Left 0
SYMATTR InstName V2
SYMATTR Value 3.3
SYMBOL res -16 272 R90
WINDOW 0 0 56 VBottom 2
WINDOW 3 32 56 VTop 2
SYMATTR InstName R2
SYMATTR Value 1
SYMBOL ind -128 272 R90
WINDOW 0 5 56 VBottom 2
WINDOW 3 32 56 VTop 2
SYMATTR InstName L2
SYMATTR Value 5n
SYMBOL voltage -336 1216 R0
WINDOW 123 0 0 Left 0
WINDOW 39 0 0 Left 0
SYMATTR InstName V3
SYMATTR Value 3.3
SYMBOL res -16 1120 R90
WINDOW 0 0 56 VBottom 2
WINDOW 3 32 56 VTop 2
SYMATTR InstName R3
SYMATTR Value 1
SYMBOL ind -128 1120 R90
WINDOW 0 5 56 VBottom 2
WINDOW 3 32 56 VTop 2
SYMATTR InstName L3
SYMATTR Value 5n
SYMBOL AutoGenerated\\GRM1555C1H101JA01 1856 896 R90
SYMATTR InstName U4
SYMBOL voltage 1392 800 R0
WINDOW 123 0 0 Left 0
WINDOW 39 0 0 Left 0
SYMATTR InstName V4
SYMATTR Value 3.3
SYMBOL res 1712 704 R90
WINDOW 0 0 56 VBottom 2
WINDOW 3 32 56 VTop 2
SYMATTR InstName R4
SYMATTR Value 1
SYMBOL ind 1600 704 R90
WINDOW 0 5 56 VBottom 2
WINDOW 3 32 56 VTop 2
SYMATTR InstName L4
SYMATTR Value 5n
SYMBOL AutoGenerated\\GRM1555C1H101JA01 2000 896 R90
SYMATTR InstName U5
SYMBOL AutoGenerated\\GRM1555C1H101JA01 2144 896 R90
SYMATTR InstName U6
SYMBOL AutoGenerated\\GRM1555C1H101JA01 2288 896 R90
SYMATTR InstName U7
SYMBOL voltage 1392 -48 R0
WINDOW 123 0 0 Left 0
WINDOW 39 0 0 Left 0
SYMATTR InstName V5
SYMATTR Value 3.3
SYMBOL res 1712 -144 R90
WINDOW 0 0 56 VBottom 2
WINDOW 3 32 56 VTop 2
SYMATTR InstName R5
SYMATTR Value 1
SYMBOL ind 1600 -144 R90
WINDOW 0 5 56 VBottom 2
WINDOW 3 32 56 VTop 2
SYMATTR InstName L5
SYMATTR Value 5n
SYMBOL AutoGenerated\\GRM155R71A104MA01 1856 48 R90
SYMATTR InstName U8
SYMBOL AutoGenerated\\GRM155R71A104MA01 2000 48 R90
SYMATTR InstName U9
SYMBOL AutoGenerated\\GRM155R71A104MA01 2144 48 R90
SYMATTR InstName U10
SYMBOL AutoGenerated\\GRM155R71A104MA01 2288 48 R90
SYMATTR InstName U11
SYMBOL voltage 1392 368 R0
WINDOW 123 0 0 Left 0
WINDOW 39 0 0 Left 0
SYMATTR InstName V6
SYMATTR Value 3.3
SYMBOL res 1712 272 R90
WINDOW 0 0 56 VBottom 2
WINDOW 3 32 56 VTop 2
SYMATTR InstName R6
SYMATTR Value 1
SYMBOL ind 1600 272 R90
WINDOW 0 5 56 VBottom 2
WINDOW 3 32 56 VTop 2
SYMATTR InstName L6
SYMATTR Value 5n
SYMBOL AutoGenerated\\GRM155R71H103JA88 1856 464 R90
SYMATTR InstName U12
SYMBOL AutoGenerated\\GRM155R71H103JA88 2000 464 R90
SYMATTR InstName U13
SYMBOL AutoGenerated\\GRM155R71H103JA88 2144 464 R90
SYMATTR InstName U14
SYMBOL AutoGenerated\\GRM155R71H103JA88 2288 464 R90
SYMATTR InstName U15
SYMBOL voltage 1392 3392 R0
WINDOW 123 0 0 Left 0
WINDOW 39 0 0 Left 0
SYMATTR InstName V7
SYMATTR Value 3.3
SYMBOL res 1712 3296 R90
WINDOW 0 0 56 VBottom 2
WINDOW 3 32 56 VTop 2
SYMATTR InstName R7
SYMATTR Value 1
SYMBOL ind 1600 3296 R90
WINDOW 0 5 56 VBottom 2
WINDOW 3 32 56 VTop 2
SYMATTR InstName L7
SYMATTR Value 5n
SYMBOL AutoGenerated\\GRM155R71A104MA01 1856 3488 R90
SYMATTR InstName U16
SYMBOL current 368 368 R0
WINDOW 123 0 0 Left 0
WINDOW 39 0 0 Left 0
SYMATTR InstName I2
SYMATTR Value PWL(0 0 1 0 {1+10e-12} 24e-3 {1+250e-12} 24e-3 {1+260e-12} 0)
SYMBOL current 368 1216 R0
WINDOW 123 0 0 Left 0
WINDOW 39 0 0 Left 0
SYMATTR InstName I3
SYMATTR Value PWL(0 0 1 0 {1+10e-12} 24e-3 {1+250e-12} 24e-3 {1+260e-12} 0)
SYMBOL current 3392 -48 R0
WINDOW 123 0 0 Left 0
WINDOW 39 0 0 Left 0
SYMATTR InstName I4
SYMATTR Value PWL(0 0 1 0 {1+10e-12} 24e-3 {1+250e-12} 24e-3 {1+260e-12} 0)
SYMBOL current 3392 368 R0
WINDOW 123 0 0 Left 0
WINDOW 39 0 0 Left 0
SYMATTR InstName I5
SYMATTR Value PWL(0 0 1 0 {1+10e-12} 24e-3 {1+250e-12} 24e-3 {1+260e-12} 0)
SYMBOL current 3392 800 R0
WINDOW 123 0 0 Left 0
WINDOW 39 0 0 Left 0
SYMATTR InstName I6
SYMATTR Value PWL(0 0 1 0 {1+10e-12} 24e-3 {1+250e-12} 24e-3 {1+260e-12} 0)
SYMBOL current 3392 3392 R0
WINDOW 123 0 0 Left 0
WINDOW 39 0 0 Left 0
SYMATTR InstName I7
SYMATTR Value PWL(0 0 1 0 {1+10e-12} 24e-3 {1+250e-12} 24e-3 {1+260e-12} 0)
SYMBOL voltage -336 816 R0
WINDOW 123 0 0 Left 0
WINDOW 39 0 0 Left 0
SYMATTR InstName V8
SYMATTR Value 3.3
SYMBOL res -16 720 R90
WINDOW 0 0 56 VBottom 2
WINDOW 3 32 56 VTop 2
SYMATTR InstName R8
SYMATTR Value 1
SYMBOL ind -128 720 R90
WINDOW 0 5 56 VBottom 2
WINDOW 3 32 56 VTop 2
SYMATTR InstName L8
SYMATTR Value 5n
SYMBOL current 368 816 R0
WINDOW 123 0 0 Left 0
WINDOW 39 0 0 Left 0
SYMATTR InstName I8
SYMATTR Value PWL(0 0 1 0 {1+10e-12} 24e-3 {1+250e-12} 24e-3 {1+260e-12} 0)
SYMBOL AutoGenerated\\GRM155R72A471MA01 128 912 R90
SYMATTR InstName U20
SYMBOL voltage -336 -496 R0
WINDOW 123 0 0 Left 0
WINDOW 39 0 0 Left 0
SYMATTR InstName V9
SYMATTR Value 3.3
SYMBOL res -16 -592 R90
WINDOW 0 0 56 VBottom 2
WINDOW 3 32 56 VTop 2
SYMATTR InstName R9
SYMATTR Value 1
SYMBOL current 368 -496 R0
WINDOW 123 0 0 Left 0
WINDOW 39 0 0 Left 0
SYMATTR InstName I9
SYMATTR Value PWL(0 0 1 0 {1+10e-12} 24e-3 {1+250e-12} 24e-3 {1+260e-12} 0)
SYMBOL ind -128 -592 R90
WINDOW 0 5 56 VBottom 2
WINDOW 3 32 56 VTop 2
SYMATTR InstName L9
SYMATTR Value 5n
SYMBOL AutoGenerated\\GRM155R61A105KE15 128 -400 R90
SYMATTR InstName U21
SYMBOL AutoGenerated\\GRM155R61A105KE15 2000 3488 R90
SYMATTR InstName U17
SYMBOL voltage -336 1632 R0
WINDOW 123 0 0 Left 0
WINDOW 39 0 0 Left 0
SYMATTR InstName V10
SYMATTR Value 3.3
SYMBOL res -16 1536 R90
WINDOW 0 0 56 VBottom 2
WINDOW 3 32 56 VTop 2
SYMATTR InstName R10
SYMATTR Value 1
SYMBOL ind -128 1536 R90
WINDOW 0 5 56 VBottom 2
WINDOW 3 32 56 VTop 2
SYMATTR InstName L10
SYMATTR Value 5n
SYMBOL current 368 1632 R0
WINDOW 123 0 0 Left 0
WINDOW 39 0 0 Left 0
SYMATTR InstName I10
SYMATTR Value PWL(0 0 1 0 {1+10e-12} 24e-3 {1+250e-12} 24e-3 {1+260e-12} 0)
SYMBOL AutoGenerated\\GRM1555C1H470JA01 128 1728 R90
SYMATTR InstName U18
SYMBOL voltage 1376 1648 R0
WINDOW 123 0 0 Left 0
WINDOW 39 0 0 Left 0
SYMATTR InstName V11
SYMATTR Value 3.3
SYMBOL res 1696 1552 R90
WINDOW 0 0 56 VBottom 2
WINDOW 3 32 56 VTop 2
SYMATTR InstName R11
SYMATTR Value 1
SYMBOL ind 1584 1552 R90
WINDOW 0 5 56 VBottom 2
WINDOW 3 32 56 VTop 2
SYMATTR InstName L11
SYMATTR Value 5n
SYMBOL current 3376 1648 R0
WINDOW 123 0 0 Left 0
WINDOW 39 0 0 Left 0
SYMATTR InstName I11
SYMATTR Value PWL(0 0 1 0 {1+10e-12} 24e-3 {1+250e-12} 24e-3 {1+260e-12} 0)
SYMBOL AutoGenerated\\GRM1555C1H470JA01 1840 1744 R90
SYMATTR InstName U19
SYMBOL AutoGenerated\\GRM1555C1H470JA01 1984 1744 R90
SYMATTR InstName U22
SYMBOL AutoGenerated\\GRM1555C1H470JA01 2128 1744 R90
SYMATTR InstName U23
SYMBOL AutoGenerated\\GRM1555C1H470JA01 2272 1744 R90
SYMATTR InstName U24
SYMBOL voltage -336 2048 R0
WINDOW 123 0 0 Left 0
WINDOW 39 0 0 Left 0
SYMATTR InstName V12
SYMATTR Value 3.3
SYMBOL res -16 1952 R90
WINDOW 0 0 56 VBottom 2
WINDOW 3 32 56 VTop 2
SYMATTR InstName R12
SYMATTR Value 1
SYMBOL ind -128 1952 R90
WINDOW 0 5 56 VBottom 2
WINDOW 3 32 56 VTop 2
SYMATTR InstName L12
SYMATTR Value 5n
SYMBOL current 368 2048 R0
WINDOW 123 0 0 Left 0
WINDOW 39 0 0 Left 0
SYMATTR InstName I12
SYMATTR Value PWL(0 0 1 0 {1+10e-12} 24e-3 {1+250e-12} 24e-3 {1+260e-12} 0)
SYMBOL AutoGenerated\\GRM1555C1H220JA01 128 2144 R90
SYMATTR InstName U25
SYMBOL voltage -336 2464 R0
WINDOW 123 0 0 Left 0
WINDOW 39 0 0 Left 0
SYMATTR InstName V13
SYMATTR Value 3.3
SYMBOL res -16 2368 R90
WINDOW 0 0 56 VBottom 2
WINDOW 3 32 56 VTop 2
SYMATTR InstName R13
SYMATTR Value 1
SYMBOL ind -128 2368 R90
WINDOW 0 5 56 VBottom 2
WINDOW 3 32 56 VTop 2
SYMATTR InstName L13
SYMATTR Value 5n
SYMBOL current 368 2464 R0
WINDOW 123 0 0 Left 0
WINDOW 39 0 0 Left 0
SYMATTR InstName I13
SYMATTR Value PWL(0 0 1 0 {1+10e-12} 24e-3 {1+250e-12} 24e-3 {1+260e-12} 0)
SYMBOL AutoGenerated\\GRM1555C1H100GA01 128 2560 R90
SYMATTR InstName U26
SYMBOL voltage 1376 2032 R0
WINDOW 123 0 0 Left 0
WINDOW 39 0 0 Left 0
SYMATTR InstName V14
SYMATTR Value 3.3
SYMBOL res 1696 1936 R90
WINDOW 0 0 56 VBottom 2
WINDOW 3 32 56 VTop 2
SYMATTR InstName R14
SYMATTR Value 1
SYMBOL ind 1584 1936 R90
WINDOW 0 5 56 VBottom 2
WINDOW 3 32 56 VTop 2
SYMATTR InstName L14
SYMATTR Value 5n
SYMBOL current 3376 2032 R0
WINDOW 123 0 0 Left 0
WINDOW 39 0 0 Left 0
SYMATTR InstName I14
SYMATTR Value PWL(0 0 1 0 {1+10e-12} 24e-3 {1+250e-12} 24e-3 {1+260e-12} 0)
SYMBOL voltage 1344 2448 R0
WINDOW 123 0 0 Left 0
WINDOW 39 0 0 Left 0
SYMATTR InstName V15
SYMATTR Value 3.3
SYMBOL res 1664 2352 R90
WINDOW 0 0 56 VBottom 2
WINDOW 3 32 56 VTop 2
SYMATTR InstName R15
SYMATTR Value 1
SYMBOL ind 1552 2352 R90
WINDOW 0 5 56 VBottom 2
WINDOW 3 32 56 VTop 2
SYMATTR InstName L15
SYMATTR Value 5n
SYMBOL current 3344 2448 R0
WINDOW 123 0 0 Left 0
WINDOW 39 0 0 Left 0
SYMATTR InstName I15
SYMATTR Value PWL(0 0 1 0 {1+10e-12} 24e-3 {1+250e-12} 24e-3 {1+260e-12} 0)
SYMBOL AutoGenerated\\GRM1555C1H100GA01 1808 2544 R90
SYMATTR InstName U27
SYMBOL AutoGenerated\\GRM1555C1H100GA01 1952 2544 R90
SYMATTR InstName U28
SYMBOL AutoGenerated\\GRM1555C1H100GA01 2096 2544 R90
SYMATTR InstName U29
SYMBOL AutoGenerated\\GRM1555C1H100GA01 2240 2544 R90
SYMATTR InstName U30
SYMBOL AutoGenerated\\GRM1555C1H220JA01 1840 2128 R90
SYMATTR InstName U31
SYMBOL AutoGenerated\\GRM1555C1H220JA01 1984 2128 R90
SYMATTR InstName U32
SYMBOL AutoGenerated\\GRM1555C1H220JA01 2128 2128 R90
SYMATTR InstName U33
SYMBOL AutoGenerated\\GRM1555C1H220JA01 2272 2128 R90
SYMATTR InstName U34
SYMBOL AutoGenerated\\GRM1555C1H470JA01 2144 3488 R90
SYMATTR InstName U35
TEXT -362 2840 Left 2 !.tran 0 {1+5e-9} {1-5e-9} 1e-3
