Version 4
SHEET 1 1572 1364
WIRE -48 48 -160 48
WIRE 64 48 32 48
WIRE 96 48 64 48
WIRE 208 48 176 48
WIRE 640 48 208 48
WIRE 800 48 640 48
WIRE 960 48 800 48
WIRE 640 112 640 48
WIRE 800 112 800 48
WIRE 960 112 960 48
WIRE -160 128 -160 48
WIRE 64 160 64 48
WIRE 112 160 64 160
WIRE 208 160 208 48
WIRE 208 160 176 160
WIRE -160 240 -160 208
WIRE 64 272 64 160
WIRE 96 272 64 272
WIRE 208 272 208 160
WIRE 208 272 176 272
WIRE 640 336 640 304
WIRE 800 336 800 304
WIRE 960 336 960 304
WIRE -32 528 -144 528
WIRE 80 528 48 528
WIRE 112 528 80 528
WIRE 224 528 192 528
WIRE 656 528 224 528
WIRE 816 528 656 528
WIRE 976 528 816 528
WIRE 656 592 656 528
WIRE 816 592 816 528
WIRE 976 592 976 528
WIRE -144 608 -144 528
WIRE 80 640 80 528
WIRE 128 640 80 640
WIRE 224 640 224 528
WIRE 224 640 192 640
WIRE -144 720 -144 688
WIRE 656 720 656 672
WIRE 80 752 80 640
WIRE 112 752 80 752
WIRE 224 752 224 640
WIRE 224 752 192 752
WIRE 816 816 816 784
WIRE 976 816 976 784
WIRE 656 944 656 912
WIRE -16 1056 -128 1056
WIRE 96 1056 64 1056
WIRE 128 1056 96 1056
WIRE 240 1056 208 1056
WIRE 672 1056 240 1056
WIRE 832 1056 672 1056
WIRE 992 1056 832 1056
WIRE 672 1120 672 1056
WIRE 832 1120 832 1056
WIRE 992 1120 992 1056
WIRE -128 1136 -128 1056
WIRE 96 1168 96 1056
WIRE 144 1168 96 1168
WIRE 240 1168 240 1056
WIRE 240 1168 208 1168
WIRE -128 1248 -128 1216
WIRE 96 1280 96 1168
WIRE 128 1280 96 1280
WIRE 240 1280 240 1168
WIRE 240 1280 208 1280
WIRE 672 1344 672 1312
WIRE 832 1344 832 1312
WIRE 992 1344 992 1312
FLAG -160 240 0
FLAG 640 336 0
FLAG 800 336 0
FLAG 960 336 0
FLAG -144 720 0
FLAG 656 944 0
FLAG 816 816 0
FLAG 976 816 0
FLAG -128 1248 0
FLAG 672 1344 0
FLAG 832 1344 0
FLAG 992 1344 0
SYMBOL cap 176 144 R90
WINDOW 0 0 32 VBottom 2
WINDOW 3 32 32 VTop 2
SYMATTR InstName C1
SYMATTR Value 61.2f
SYMBOL ind 192 32 R90
WINDOW 0 5 56 VBottom 2
WINDOW 3 32 56 VTop 2
SYMATTR InstName L1
SYMATTR Value 2.86µ
SYMBOL res 48 32 R90
WINDOW 0 0 56 VBottom 2
WINDOW 3 32 56 VTop 2
SYMATTR InstName R1
SYMATTR Value 2
SYMBOL voltage -160 112 R0
WINDOW 123 24 124 Left 2
WINDOW 39 0 0 Left 0
SYMATTR InstName V1
SYMATTR Value ""
SYMATTR Value2 AC 1
SYMBOL AutoGenerated\\GRM155R61A105KE15 640 208 R90
SYMATTR InstName U1
SYMBOL AutoGenerated\\GRM155R71A104MA01 800 208 R90
SYMATTR InstName U2
SYMBOL AutoGenerated\\GRM1555C1H470JA01 960 208 R90
SYMATTR InstName U3
SYMBOL res 192 256 R90
WINDOW 0 0 56 VBottom 2
WINDOW 3 32 56 VTop 2
SYMATTR InstName R3
SYMATTR Value 3500
SYMBOL cap 192 624 R90
WINDOW 0 0 32 VBottom 2
WINDOW 3 32 32 VTop 2
SYMATTR InstName C2
SYMATTR Value 61.2f
SYMBOL ind 208 512 R90
WINDOW 0 5 56 VBottom 2
WINDOW 3 32 56 VTop 2
SYMATTR InstName L2
SYMATTR Value 2.86µ
SYMBOL res 64 512 R90
WINDOW 0 0 56 VBottom 2
WINDOW 3 32 56 VTop 2
SYMATTR InstName R4
SYMATTR Value 2
SYMBOL voltage -144 592 R0
WINDOW 123 24 124 Left 2
WINDOW 39 0 0 Left 0
SYMATTR InstName V2
SYMATTR Value ""
SYMATTR Value2 AC 1
SYMBOL AutoGenerated\\GRM155R61A105KE15 656 816 R90
SYMATTR InstName U4
SYMBOL AutoGenerated\\GRM155R71A104MA01 816 688 R90
SYMATTR InstName U5
SYMBOL AutoGenerated\\GRM1555C1H470JA01 976 688 R90
SYMATTR InstName U6
SYMBOL res 208 736 R90
WINDOW 0 0 56 VBottom 2
WINDOW 3 32 56 VTop 2
SYMATTR InstName R6
SYMATTR Value 3500
SYMBOL res 640 576 R0
SYMATTR InstName R2
SYMATTR Value 10
SYMBOL cap 208 1152 R90
WINDOW 0 0 32 VBottom 2
WINDOW 3 32 32 VTop 2
SYMATTR InstName C3
SYMATTR Value 61.2f
SYMBOL ind 224 1040 R90
WINDOW 0 5 56 VBottom 2
WINDOW 3 32 56 VTop 2
SYMATTR InstName L3
SYMATTR Value 2.86µ
SYMBOL res 80 1040 R90
WINDOW 0 0 56 VBottom 2
WINDOW 3 32 56 VTop 2
SYMATTR InstName R5
SYMATTR Value 10
SYMBOL voltage -128 1120 R0
WINDOW 123 24 124 Left 2
WINDOW 39 0 0 Left 0
SYMATTR InstName V3
SYMATTR Value ""
SYMATTR Value2 AC 1
SYMBOL AutoGenerated\\GRM155R61A105KE15 672 1216 R90
SYMATTR InstName U7
SYMBOL AutoGenerated\\GRM155R71A104MA01 832 1216 R90
SYMATTR InstName U8
SYMBOL AutoGenerated\\GRM1555C1H470JA01 992 1216 R90
SYMATTR InstName U9
SYMBOL res 224 1264 R90
WINDOW 0 0 56 VBottom 2
WINDOW 3 32 56 VTop 2
SYMATTR InstName R7
SYMATTR Value 3500
TEXT -178 -152 Left 2 !.ac dec 100 100 10g
TEXT -16 -24 Left 2 ;BLM15HD182BH1
TEXT 0 456 Left 2 ;BLM15HD182BH1
TEXT 16 984 Left 2 ;BLM15HD182BH1
