Version 4
SHEET 1 1196 1184
WIRE -224 -128 -336 -128
WIRE -112 -128 -144 -128
WIRE 128 -128 -32 -128
WIRE 368 -128 128 -128
WIRE 128 -48 128 -128
WIRE 368 -48 368 -128
WIRE -336 -32 -336 -128
WIRE 368 64 368 32
WIRE -336 80 -336 48
WIRE 128 176 128 144
WIRE -224 288 -336 288
WIRE -112 288 -144 288
WIRE 128 288 -32 288
WIRE 368 288 128 288
WIRE 128 368 128 288
WIRE 368 368 368 288
WIRE -336 384 -336 288
WIRE 368 480 368 448
WIRE -336 496 -336 464
WIRE 128 592 128 560
WIRE -224 704 -336 704
WIRE -112 704 -144 704
WIRE 128 704 -32 704
WIRE 368 704 128 704
WIRE 128 784 128 704
WIRE 368 784 368 704
WIRE -336 800 -336 704
WIRE 368 896 368 864
WIRE -336 912 -336 880
WIRE 128 1008 128 976
FLAG -336 80 0
FLAG 128 176 0
FLAG 368 64 0
FLAG -336 496 0
FLAG 128 592 0
FLAG 368 480 0
FLAG -336 912 0
FLAG 128 1008 0
FLAG 368 896 0
SYMBOL AutoGenerated\\GRM155R71A104MA01 128 48 R90
SYMATTR InstName U1
SYMBOL AutoGenerated\\GRM155R71H103JA88 128 464 R90
SYMATTR InstName U2
SYMBOL AutoGenerated\\GRM1555C1H101JA01 128 880 R90
SYMATTR InstName U3
SYMBOL voltage -336 -48 R0
WINDOW 123 0 0 Left 0
WINDOW 39 0 0 Left 0
SYMATTR InstName V1
SYMATTR Value 1
SYMBOL res -16 -144 R90
WINDOW 0 0 56 VBottom 2
WINDOW 3 32 56 VTop 2
SYMATTR InstName R1
SYMATTR Value 1
SYMBOL current 368 -48 R0
WINDOW 123 0 0 Left 0
WINDOW 39 0 0 Left 0
SYMATTR InstName I1
SYMATTR Value PWL(0 0 1 0 {1+10e-12} 10e-3 {1+250e-12} 10e-3 {1+260e-12} 0)
SYMBOL ind -128 -144 R90
WINDOW 0 5 56 VBottom 2
WINDOW 3 32 56 VTop 2
SYMATTR InstName L1
SYMATTR Value 5n
SYMBOL voltage -336 368 R0
WINDOW 123 0 0 Left 0
WINDOW 39 0 0 Left 0
SYMATTR InstName V2
SYMATTR Value 1
SYMBOL res -16 272 R90
WINDOW 0 0 56 VBottom 2
WINDOW 3 32 56 VTop 2
SYMATTR InstName R2
SYMATTR Value 1
SYMBOL current 368 368 R0
WINDOW 123 0 0 Left 0
WINDOW 39 0 0 Left 0
SYMATTR InstName I2
SYMATTR Value PWL(0 0 1 0 {1+10e-12} 10e-3 {1+250e-12} 10e-3 {1+260e-12} 0)
SYMBOL ind -128 272 R90
WINDOW 0 5 56 VBottom 2
WINDOW 3 32 56 VTop 2
SYMATTR InstName L2
SYMATTR Value 5n
SYMBOL voltage -336 784 R0
WINDOW 123 0 0 Left 0
WINDOW 39 0 0 Left 0
SYMATTR InstName V3
SYMATTR Value 1
SYMBOL res -16 688 R90
WINDOW 0 0 56 VBottom 2
WINDOW 3 32 56 VTop 2
SYMATTR InstName R3
SYMATTR Value 1
SYMBOL current 368 784 R0
WINDOW 123 0 0 Left 0
WINDOW 39 0 0 Left 0
SYMATTR InstName I3
SYMATTR Value PWL(0 0 1 0 {1+10e-12} 10e-3 {1+250e-12} 10e-3 {1+260e-12} 0)
SYMBOL ind -128 688 R90
WINDOW 0 5 56 VBottom 2
WINDOW 3 32 56 VTop 2
SYMATTR InstName L3
SYMATTR Value 5n
TEXT -354 1168 Left 2 !.tran 0 {1+5e-9} {1-5e-9} 1e-3
